Version 4
SHEET 1 1132 680
WIRE -336 -96 -784 -96
WIRE -64 -96 -336 -96
WIRE 176 -96 -64 -96
WIRE 608 -96 176 -96
WIRE 704 -96 608 -96
WIRE -336 -64 -336 -96
WIRE 608 -48 608 -96
WIRE 176 80 176 -96
WIRE -64 96 -64 -96
WIRE 144 96 128 96
WIRE 704 96 704 -96
WIRE -96 112 -176 112
WIRE 272 112 272 32
WIRE 272 112 208 112
WIRE 304 112 272 112
WIRE 336 112 304 112
WIRE 432 112 432 32
WIRE 432 112 400 112
WIRE 464 112 432 112
WIRE 528 112 464 112
WIRE 672 112 528 112
WIRE -784 128 -784 -96
WIRE 48 128 -32 128
WIRE 144 128 48 128
WIRE 816 128 736 128
WIRE -560 144 -624 144
WIRE -336 144 -336 16
WIRE -336 144 -560 144
WIRE -96 144 -336 144
WIRE 608 144 608 32
WIRE 672 144 608 144
WIRE -560 160 -560 144
WIRE 128 208 128 96
WIRE 208 208 128 208
WIRE 304 208 304 112
WIRE 304 208 288 208
WIRE -336 224 -336 144
WIRE -176 224 -176 112
WIRE -96 224 -176 224
WIRE 48 224 48 128
WIRE 48 224 -16 224
WIRE 128 224 128 208
WIRE -560 256 -560 224
WIRE 816 256 816 128
WIRE 464 288 464 112
WIRE 528 288 528 112
WIRE 608 288 608 144
WIRE 816 352 816 336
WIRE 1072 352 816 352
WIRE -176 368 -176 304
WIRE 128 368 128 304
WIRE 816 368 816 352
WIRE -560 464 -560 336
WIRE -336 464 -336 304
WIRE -336 464 -560 464
WIRE -176 464 -176 432
WIRE -176 464 -336 464
WIRE -64 464 -64 160
WIRE -64 464 -176 464
WIRE 128 464 128 432
WIRE 128 464 -64 464
WIRE 176 464 176 144
WIRE 176 464 128 464
WIRE 464 464 464 368
WIRE 464 464 176 464
WIRE 528 464 528 352
WIRE 528 464 464 464
WIRE 608 464 608 368
WIRE 608 464 528 464
WIRE 704 464 704 160
WIRE 704 464 608 464
WIRE 816 464 816 448
WIRE 816 464 704 464
WIRE -784 480 -784 208
WIRE -560 480 -560 464
WIRE -560 480 -784 480
WIRE -560 528 -560 480
FLAG -560 528 0
FLAG -624 144 TP1
FLAG 1072 352 TP4
FLAG 272 32 TP2
FLAG 432 32 TP3
SYMBOL res -352 208 R0
SYMATTR InstName R2
SYMATTR Value 1Meg
SYMBOL res -352 -80 R0
SYMATTR InstName R3
SYMATTR Value 1Meg
SYMBOL res -192 208 R0
SYMATTR InstName R4
SYMATTR Value 12k
SYMBOL res 0 208 R90
WINDOW 0 0 56 VBottom 2
WINDOW 3 32 56 VTop 2
SYMATTR InstName R5
SYMATTR Value 1Meg
SYMBOL cap -192 368 R0
SYMATTR InstName C1
SYMATTR Value 10n
SYMBOL res 304 192 R90
WINDOW 0 0 56 VBottom 2
WINDOW 3 32 56 VTop 2
SYMATTR InstName R1
SYMATTR Value 1Meg
SYMBOL res 144 320 R180
WINDOW 0 36 76 Left 2
WINDOW 3 36 40 Left 2
SYMATTR InstName R6
SYMATTR Value 12k
SYMBOL cap 112 368 R0
SYMATTR InstName C2
SYMATTR Value 10n
SYMBOL res 480 384 R180
WINDOW 0 36 76 Left 2
WINDOW 3 36 40 Left 2
SYMATTR InstName R7
SYMATTR Value 10k
SYMBOL cap 512 288 R0
SYMATTR InstName C3
SYMATTR Value 10n
SYMBOL res 592 -64 R0
SYMATTR InstName R9
SYMATTR Value 390k
SYMBOL res 592 272 R0
SYMATTR InstName R10
SYMATTR Value 1Meg
SYMBOL res 800 240 R0
SYMATTR InstName R12
SYMATTR Value 8k
SYMBOL res 800 352 R0
SYMATTR InstName R13
SYMATTR Value 10k
SYMBOL cap -576 160 R0
SYMATTR InstName C4
SYMATTR Value 2500p
SYMBOL voltage -560 240 R0
WINDOW 123 0 0 Left 2
WINDOW 39 0 0 Left 2
SYMATTR InstName V1
SYMATTR Value SINE(0 10m 40k 500u 0 0 10)
SYMBOL Opamps\\UniversalOpamp2 -64 128 R0
SYMATTR InstName U1
SYMBOL Opamps\\UniversalOpamp2 176 112 R0
SYMATTR InstName U2
SYMBOL Opamps\\UniversalOpamp2 704 128 R0
SYMATTR InstName U3
SYMBOL voltage -784 112 R0
WINDOW 123 0 0 Left 2
WINDOW 39 0 0 Left 2
SYMATTR InstName V2
SYMATTR Value 9
SYMBOL diode 336 128 R270
WINDOW 0 32 32 VTop 2
WINDOW 3 0 32 VBottom 2
SYMATTR InstName D1
TEXT -680 80 Left 2 ;Ultrasonic Transducer
TEXT -744 448 Left 2 !.tran 0 1m 0
